#!/sbin/sh
# Magisk/KernelSU Installer Script
# Based on Magisk Module Installer Template

TMPDIR=/dev/tmp
rm -rf $TMPDIR
mkdir -p $TMPDIR

# Extract module files
unzip -o "$ZIPFILE" -d $TMPDIR >&2

# Check if Module was extracted
if [ ! -f $TMPDIR/module.prop ]; then
    echo "! Unable to extract module zip"
    exit 1
fi

# Check Magisk version
if [ -f /data/adb/magisk/util_functions.sh ]; then
    . /data/adb/magisk/util_functions.sh
elif [ -f /data/adb/ksud ] ; then
    # KernelSU support
    MODPATH=${TMPDIR}
else
    echo "! Unsupported manager"
    exit 1
fi

# Install
set_perm_recursive $MODPATH 0 0 0755 0644
set_perm $MODPATH/service.sh 0 0 0755
set_perm $MODPATH/post-fs-data.sh 0 0 0755

# Copy to module directory
if [ ! -z "$MODPATH" ] && [ "$MODPATH" != "$TMPDIR" ]; then
    cp -af $TMPDIR/* $MODPATH/
fi

exit 0
